136

C         12.5741285469         -0.5124695226         -1.4495056328
O         13.5647801635          0.1241222909         -1.8699727558
H         12.6850504526         -1.6196273876         -1.2240321265
Mg          7.0295935106         -0.3832058914          0.1689039668
N          7.6876901127         -2.2964255909          0.6292617601
N          8.9501088970          0.1558661175         -0.5818819710
N          6.4039997877          1.5267518876         -0.2920899436
N          5.0047254357         -0.8567695189          0.9059784876
C          3.8767646876         -0.0148858997          0.8937780296
C          2.6227475880         -0.7397235762          1.4729233727
C          3.2440446279         -2.0704911269          2.0861004693
C          4.6981243430         -2.0695563356          1.5098505232
C          5.5700639642         -3.1820537296          1.6348739669
C          6.9437070830         -3.3165794715          1.2272996314
C          7.7803106063         -4.5304636464          1.3867535317
C          9.0525230344         -4.2192659167          0.8582466558
C          8.9854997485         -2.7983007711          0.3958998858
C         10.0468326564         -2.0597498699         -0.1913498658
C         10.0566829208         -0.6876306755         -0.6403846121
C         11.2149809270          0.0488404320         -1.2104006164
C         10.7633599680          1.3685519549         -1.4993375508
C          9.3476020532          1.4158961638         -1.0996812013
C          8.4806263889          2.5570389149         -1.2135170595
C          7.1068338132          2.6410743114         -0.8485775755
C          6.1910322152          3.8029968635         -0.9745955549
C          4.9441252621          3.3380118163         -0.4848920374
C          5.1237676801          1.9550628067         -0.0833404766
C          3.9378021954          1.3164265061          0.4262320994
C          2.7937417233          2.3868696115          0.3480497694
C          3.5299680999          3.7306448268         -0.2650784112
O          2.9462464626          4.8034447739         -0.4953731480
H          5.1241746168         -4.0708576069          2.1163976742
H         10.9939033866         -2.6099785426         -0.3202447307
H          8.9317939639          3.4723832578         -1.6364721350
C          2.1309551106          2.7079501181          1.7404911538
O          2.7239957614          2.5396556647          2.8104940112
O          0.8323003220          3.2108456520          1.7820742752
C          0.0142644328          3.4256812750          0.5563648837
H         -0.8915030464          3.9541262728          0.9261042846
H          0.5519597302          4.0659066340         -0.1749409456
H         -0.2881100916          2.4504785699          0.1047803103
H          2.0112412289          2.1040559799         -0.3929485291
C          3.2297558630         -2.0908650298          3.6657467105
H          2.6935571124         -2.9726197546          1.7212742685
H          2.1790904411         -2.0688441928          4.0434013708
H          3.7223171826         -3.0100245338          4.0631407250
H          3.7650190485         -1.2038605248          4.0808733666
C          7.3244264857         -5.8314285183          2.0578061178
H          8.1888291938         -6.3723504044          2.5075626074
H          6.5853695277         -5.6337841134          2.8701765574
H          6.8352436170         -6.5326480359          1.3339101177
C         10.2757510804         -5.0630038482          0.7772041262
C         10.3387806927         -6.4227275369          0.6305519915
H         11.2383980510         -4.5128740103          0.8314946362
H          9.4402669703         -7.0562762026          0.5186080620
H         11.3145951123         -6.9424793813          0.5909700602
C         11.5840171361          2.5290441196         -2.0838473578
C         12.4239289481          3.3099145604         -0.9938396554
H         13.1752703899          2.6325390640         -0.5288898504
H         12.9676838712          4.1619242080         -1.4689385008
H         11.7661466973          3.7196629722         -0.1898500696
H         10.9075251941          3.2474868891         -2.6076517180
H         12.2903380547          2.1248569022         -2.8435418911
C          6.5244810780          5.1974529951         -1.5121382680
H          6.9211426320          5.1538605006         -2.5569087251
H          5.6134297229          5.8367323623         -1.5113084249
H          7.3031333320          5.7033442874         -0.8879920736
H          2.1855006116         -0.1072964001          2.2813926094
C          1.5037156218         -0.9852990408          0.3769067968
C          0.1045310585         -1.4021739632          0.9789344973
C         -1.0247783999         -1.2637160784         -0.0894232236
O         -1.2467358883         -0.2204831006         -0.7244875995
O         -1.7168326457         -2.4551377937         -0.2374459556
C         -2.8697320372         -2.4614642822         -1.2345512447
C         -4.1926006518         -2.1081752442         -0.5575583644
C         -5.0004148287         -1.0280500426         -0.8044094050
C         -4.6737110827          0.0933457992         -1.8210704592
C         -6.3544261164         -0.8948262973         -0.0566939487
C         -7.6271251532         -1.1300944130         -0.9729160738
C         -8.9755528953         -1.0295281287         -0.1656852557
C        -10.3032860863         -1.1843102718         -1.0191924452
H        -10.2511256451         -0.4431421046         -1.8611559183
C        -10.4405052439         -2.6223566004         -1.6508358185
C        -11.5579715048         -0.8004727446         -0.1278952577
C        -12.9408652394         -0.7264713797         -0.8800346266
C        -14.1046885429         -0.1964109092          0.0410087942
C        -15.5241387367         -0.0591941622         -0.6528877412
H        -15.3777633323          0.5225181708         -1.6027051447
C        -16.1358143544         -1.4599677481         -1.0395191834
C        -16.4982085141          0.7853487543          0.2705136598
C        -17.8826726850          1.1789112617         -0.3708258385
C        -18.7379369288          2.1282835268          0.5503305472
C        -20.1256204554          2.5954780288         -0.0529679698
C        -21.1472399525          1.4103572286         -0.2381137485
C        -20.7577955070          3.7360157441          0.8311745159
H          1.3487551515         -0.0551108010         -0.2131210981
H          1.8501560553         -1.7638257992         -0.3486806269
H          0.1189425058         -2.4356067385          1.3927779689
H         -0.1586036877         -0.7039430969          1.8130535642
H         -2.6040246767         -1.7972044408         -2.0809899579
H         -2.8685324842         -3.5213625202         -1.5778730778
H         -4.5190137286         -2.8461330811          0.2055045501
H         -5.2214252004         -0.0537842916         -2.7862698550
H         -5.0012088891          1.0834450491         -1.4180523317
H         -3.5867497298          0.1645491555         -2.0403524567
H         -6.3876319503         -1.6225880673          0.7911884370
H         -6.4253337084          0.1285509151          0.3960333415
H         -7.6390563759         -0.3794186254         -1.8031373942
H         -7.5318423868         -2.1349087244         -1.4527720469
H         -9.0020357854         -0.0345747247          0.3489439351
H         -8.9736219229         -1.7988088326          0.6509969147
H        -10.5480121869         -3.4007622426         -0.8537780949
H        -11.3325429499         -2.6951391878         -2.3166681735
H         -9.5500044706         -2.8894770326         -2.2673410309
H        -11.6379481783         -1.5325065127          0.7183843858
H        -11.3591562401          0.1963728462          0.3442584336
H        -12.8419886892         -0.0505804347         -1.7698339533
H        -13.2055388138         -1.7351522430         -1.2790185543
H        -13.8064165873          0.8088481891          0.4361446991
H        -14.1979301333         -0.8637716575          0.9382453155
H        -17.0934891002         -1.3496541821         -1.6010077197
H        -16.3472308785         -2.0724768772         -0.1268341958
H        -15.4440655782         -2.0479148272         -1.6880515748
H        -15.9669409930          1.7262192301          0.5679895252
H        -16.6813809191          0.2195894354          1.2219509076
H        -18.4670373262          0.2555390974         -0.6004293991
H        -17.7018989901          1.6897304859         -1.3530994640
H        -18.1275249085          3.0401584309          0.7794876208
H        -18.9194245692          1.6248785638          1.5366507165
H        -19.9235426564          3.0306481545         -1.0679408646
H        -21.3876917968          0.9295978270          0.7435051243
H        -20.7547817742          0.6160133123         -0.9170441233
H        -22.1069213903          1.7786523203         -0.6764324088
H        -20.9750703667          3.3707617026          1.8662592975
H        -20.0687977079          4.6114181963          0.9186545243
H        -21.7193995176          4.1023081182          0.3946513808
